720
ksi trajectory with 1 deg step !! manualy cropped, in 10th degrees !!
C 10.0235  0  0
O 10.0235  0  -0
C -16.9764  9  0.0984086
O 1.02363  -9  -0.0984086
C -16.9759  9  0.196816
O 1.02409  -9  -0.196816
C -16.9751  9  0.295222
O 1.02485  -9  -0.295222
C -16.9741  9  0.393625
O 1.02593  -9  -0.393625
C -16.9727  9  0.492024
O 1.02731  -9  -0.492024
C -16.971  9  0.590419
O 1.029  -9  -0.590419
C -16.969  9  0.688807
O 1.031  -9  -0.688807
C -16.9667  9  0.787189
O 1.03332  -9  -0.787189
C -16.964  9  0.885563
O 1.03596  -9  -0.885563
C -16.9611  9  0.983928
O 1.03893  -9  -0.983928
C -16.9578  9  1.08228
O 1.04222  -9  -1.08228
C -16.9542  9  1.18063
O 1.04585  -9  -1.18063
C -16.9502  9  1.27896
O 1.04981  -9  -1.27896
C -16.9459  9  1.37728
O 1.05412  -9  -1.37728
C -16.9412  9  1.47558
O 1.05878  -9  -1.47558
C -16.9362  9  1.57387
O 1.0638  -9  -1.57387
C -16.9308  9  1.67215
O 1.06919  -9  -1.67215
C -16.925  9  1.7704
O 1.07495  -9  -1.7704
C -16.9189  9  1.86864
O 1.0811  -9  -1.86864
C -16.9124  9  1.96685
O 1.08764  -9  -1.96685
C -16.9054  9  2.06504
O 1.09459  -9  -2.06504
C -16.898  9  2.16321
O 1.10196  -9  -2.16321
C -16.8902  9  2.26136
O 1.10976  -9  -2.26136
C -16.882  9  2.35947
O 1.118  -9  -2.35947
C -16.8733  9  2.45756
O 1.1267  -9  -2.45756
C -16.8641  9  2.55562
O 1.13588  -9  -2.55562
C -16.8545  9  2.65364
O 1.14554  -9  -2.65364
C -16.8443  9  2.75163
O 1.15572  -9  -2.75163
C -16.8336  9  2.84959
O 1.16642  -9  -2.84959
C -16.8223  9  2.9475
O 1.17768  -9  -2.9475
C -16.8105  9  3.04538
O 1.1895  -9  -3.04538
C -16.7981  9  3.14321
O 1.20192  -9  -3.14321
C -16.785  9  3.24099
O 1.21496  -9  -3.24099
C -16.7713  9  3.33873
O 1.22865  -9  -3.33873
C -16.757  9  3.43641
O 1.24302  -9  -3.43641
C -16.7419  9  3.53404
O 1.2581  -9  -3.53404
C -16.7261  9  3.6316
O 1.27393  -9  -3.6316
C -16.7095  9  3.72911
O 1.29053  -9  -3.72911
C -16.692  9  3.82655
O 1.30796  -9  -3.82655
C -16.6738  9  3.92392
O 1.32625  -9  -3.92392
C -16.6546  9  4.02122
O 1.34545  -9  -4.02122
C -16.6344  9  4.11843
O 1.36561  -9  -4.11843
C -16.6132  9  4.21556
O 1.38678  -9  -4.21556
C -16.591  9  4.3126
O 1.40902  -9  -4.3126
C -16.5676  9  4.40954
O 1.43241  -9  -4.40954
C -16.543  9  4.50638
O 1.45699  -9  -4.50638
C -16.5171  9  4.60311
O 1.48286  -9  -4.60311
C -16.4899  9  4.69972
O 1.51008  -9  -4.69972
C -16.4612  9  4.7962
O 1.53876  -9  -4.7962
C -16.431  9  4.89254
O 1.56898  -9  -4.89254
C -16.3992  9  4.98874
O 1.60085  -9  -4.98874
C -16.3655  9  5.08478
O 1.63449  -9  -5.08478
C -16.33  9  5.18065
O 1.67002  -9  -5.18065
C -16.2924  9  5.27634
O 1.70759  -9  -5.27634
C -16.2527  9  5.37183
O 1.74734  -9  -5.37183
C -16.2105  9  5.46711
O 1.78945  -9  -5.46711
C -16.1659  9  5.56215
O 1.83411  -9  -5.56215
C -16.1185  9  5.65694
O 1.88151  -9  -5.65694
C -16.0681  9  5.75146
O 1.9319  -9  -5.75146
C -16.0145  9  5.84567
O 1.98552  -9  -5.84567
C -15.9573  9  5.93956
O 2.04266  -9  -5.93956
C -15.8964  9  6.03308
O 2.10364  -9  -6.03308
C -15.8312  9  6.12621
O 2.16881  -9  -6.12621
C -15.7614  9  6.21891
O 2.23857  -9  -6.21891
C -15.6866  9  6.31113
O 2.31337  -9  -6.31113
C -15.6063  9  6.40281
O 2.3937  -9  -6.40281
C -15.5199  9  6.4939
O 2.48015  -9  -6.4939
C -15.4267  9  6.58434
O 2.57335  -9  -6.58434
C -15.326  9  6.67404
O 2.67402  -9  -6.67404
C -15.217  9  6.76292
O 2.783  -9  -6.76292
C -15.0988  9  6.85087
O 2.90121  -9  -6.85087
C -14.9703  9  6.93778
O 3.02973  -9  -6.93778
C -14.8302  9  7.02351
O 3.16976  -9  -7.02351
C -14.6773  9  7.10789
O 3.32267  -9  -7.10789
C -14.51  9  7.19074
O 3.49001  -9  -7.19074
C -14.3265  9  7.27184
O 3.67354  -9  -7.27184
C -14.1248  9  7.35093
O 3.8752  -9  -7.35093
C -13.9028  9  7.4277
O 4.09718  -9  -7.4277
C -13.6582  9  7.50181
O 4.34185  -9  -7.50181
C -13.3883  9  7.57282
O 4.61172  -9  -7.57282
C -13.0906  9  7.64027
O 4.90941  -9  -7.64027
C -12.7625  9  7.70359
O 5.23748  -9  -7.70359
C -12.4018  9  7.76215
O 5.59819  -9  -7.76215
C -12.0068  9  7.81523
O 5.99323  -9  -7.81523
C -11.5767  9  7.86209
O 6.4233  -9  -7.86209
C -11.1124  9  7.90191
O 6.88763  -9  -7.90191
C -10.6165  9  7.93391
O 7.38352  -9  -7.93391
C -10.094  9  7.95737
O 7.90602  -9  -7.95737
C -9.5521  9  7.9717
O 8.4479  -9  -7.9717
C -9  9  7.97652
O 9  -9  -7.97652
C -8.4479  9  7.9717
O 9.5521  -9  -7.9717
C -7.90602  9  7.95737
O 10.094  -9  -7.95737
C -7.38352  9  7.93391
O 10.6165  -9  -7.93391
C -6.88763  9  7.90191
O 11.1124  -9  -7.90191
C -6.4233  9  7.86209
O 11.5767  -9  -7.86209
C -5.99323  9  7.81523
O 12.0068  -9  -7.81523
C -5.59819  9  7.76215
O 12.4018  -9  -7.76215
C -5.23748  9  7.70359
O 12.7625  -9  -7.70359
C -4.90941  9  7.64027
O 13.0906  -9  -7.64027
C -4.61172  9  7.57282
O 13.3883  -9  -7.57282
C -4.34185  9  7.50181
O 13.6582  -9  -7.50181
C -4.09718  9  7.4277
O 13.9028  -9  -7.4277
C -3.8752  9  7.35093
O 14.1248  -9  -7.35093
C -3.67354  9  7.27184
O 14.3265  -9  -7.27184
C -3.49001  9  7.19074
O 14.51  -9  -7.19074
C -3.32267  9  7.10789
O 14.6773  -9  -7.10789
C -3.16976  9  7.02351
O 14.8302  -9  -7.02351
C -3.02973  9  6.93778
O 14.9703  -9  -6.93778
C -2.90121  9  6.85087
O 15.0988  -9  -6.85087
C -2.783  9  6.76292
O 15.217  -9  -6.76292
C -2.67402  9  6.67404
O 15.326  -9  -6.67404
C -2.57335  9  6.58434
O 15.4267  -9  -6.58434
C -2.48015  9  6.4939
O 15.5199  -9  -6.4939
C -2.3937  9  6.40281
O 15.6063  -9  -6.40281
C -2.31337  9  6.31113
O 15.6866  -9  -6.31113
C -2.23857  9  6.21891
O 15.7614  -9  -6.21891
C -2.16881  9  6.12621
O 15.8312  -9  -6.12621
C -2.10364  9  6.03308
O 15.8964  -9  -6.03308
C -2.04266  9  5.93956
O 15.9573  -9  -5.93956
C -1.98552  9  5.84567
O 16.0145  -9  -5.84567
C -1.9319  9  5.75146
O 16.0681  -9  -5.75146
C -1.88151  9  5.65694
O 16.1185  -9  -5.65694
C -1.83411  9  5.56215
O 16.1659  -9  -5.56215
C -1.78945  9  5.46711
O 16.2105  -9  -5.46711
C -1.74734  9  5.37183
O 16.2527  -9  -5.37183
C -1.70759  9  5.27634
O 16.2924  -9  -5.27634
C -1.67002  9  5.18065
O 16.33  -9  -5.18065
C -1.63449  9  5.08478
O 16.3655  -9  -5.08478
C -1.60085  9  4.98874
O 16.3992  -9  -4.98874
C -1.56898  9  4.89254
O 16.431  -9  -4.89254
C -1.53876  9  4.7962
O 16.4612  -9  -4.7962
C -1.51008  9  4.69972
O 16.4899  -9  -4.69972
C -1.48286  9  4.60311
O 16.5171  -9  -4.60311
C -1.45699  9  4.50638
O 16.543  -9  -4.50638
C -1.43241  9  4.40954
O 16.5676  -9  -4.40954
C -1.40902  9  4.3126
O 16.591  -9  -4.3126
C -1.38678  9  4.21556
O 16.6132  -9  -4.21556
C -1.36561  9  4.11843
O 16.6344  -9  -4.11843
C -1.34545  9  4.02122
O 16.6546  -9  -4.02122
C -1.32625  9  3.92392
O 16.6738  -9  -3.92392
C -1.30796  9  3.82655
O 16.692  -9  -3.82655
C -1.29053  9  3.72911
O 16.7095  -9  -3.72911
C -1.27393  9  3.6316
O 16.7261  -9  -3.6316
C -1.2581  9  3.53404
O 16.7419  -9  -3.53404
C -1.24302  9  3.43641
O 16.757  -9  -3.43641
C -1.22865  9  3.33873
O 16.7713  -9  -3.33873
C -1.21496  9  3.24099
O 16.785  -9  -3.24099
C -1.20192  9  3.14321
O 16.7981  -9  -3.14321
C -1.1895  9  3.04538
O 16.8105  -9  -3.04538
C -1.17768  9  2.9475
O 16.8223  -9  -2.9475
C -1.16642  9  2.84959
O 16.8336  -9  -2.84959
C -1.15572  9  2.75163
O 16.8443  -9  -2.75163
C -1.14554  9  2.65364
O 16.8545  -9  -2.65364
C -1.13588  9  2.55562
O 16.8641  -9  -2.55562
C -1.1267  9  2.45756
O 16.8733  -9  -2.45756
C -1.118  9  2.35947
O 16.882  -9  -2.35947
C -1.10976  9  2.26136
O 16.8902  -9  -2.26136
C -1.10196  9  2.16321
O 16.898  -9  -2.16321
C -1.09459  9  2.06504
O 16.9054  -9  -2.06504
C -1.08764  9  1.96685
O 16.9124  -9  -1.96685
C -1.0811  9  1.86864
O 16.9189  -9  -1.86864
C -1.07495  9  1.7704
O 16.925  -9  -1.7704
C -1.06919  9  1.67215
O 16.9308  -9  -1.67215
C -1.0638  9  1.57387
O 16.9362  -9  -1.57387
C -1.05878  9  1.47558
O 16.9412  -9  -1.47558
C -1.05412  9  1.37728
O 16.9459  -9  -1.37728
C -1.04981  9  1.27896
O 16.9502  -9  -1.27896
C -1.04585  9  1.18063
O 16.9542  -9  -1.18063
C -1.04222  9  1.08228
O 16.9578  -9  -1.08228
C -1.03893  9  0.983928
O 16.9611  -9  -0.983928
C -1.03596  9  0.885563
O 16.964  -9  -0.885563
C -1.03332  9  0.787189
O 16.9667  -9  -0.787189
C -1.031  9  0.688807
O 16.969  -9  -0.688807
C -1.029  9  0.590419
O 16.971  -9  -0.590419
C -1.02731  9  0.492024
O 16.9727  -9  -0.492024
C -1.02593  9  0.393625
O 16.9741  -9  -0.393625
C -1.02485  9  0.295222
O 16.9751  -9  -0.295222
C -1.02409  9  0.196816
O 16.9759  -9  -0.196816
C -1.02363  9  0.0984086
O 16.9764  -9  -0.0984086
C -10.0235  0  0
O -10.0235  0  -0
C 16.9764  -9  0.0984086
O -1.02363  9  -0.0984086
C 16.9759  -9  0.196816
O -1.02409  9  -0.196816
C 16.9751  -9  0.295222
O -1.02485  9  -0.295222
C 16.9741  -9  0.393625
O -1.02593  9  -0.393625
C 16.9727  -9  0.492024
O -1.02731  9  -0.492024
C 16.971  -9  0.590419
O -1.029  9  -0.590419
C 16.969  -9  0.688807
O -1.031  9  -0.688807
C 16.9667  -9  0.787189
O -1.03332  9  -0.787189
C 16.964  -9  0.885563
O -1.03596  9  -0.885563
C 16.9611  -9  0.983928
O -1.03893  9  -0.983928
C 16.9578  -9  1.08228
O -1.04222  9  -1.08228
C 16.9542  -9  1.18063
O -1.04585  9  -1.18063
C 16.9502  -9  1.27896
O -1.04981  9  -1.27896
C 16.9459  -9  1.37728
O -1.05412  9  -1.37728
C 16.9412  -9  1.47558
O -1.05878  9  -1.47558
C 16.9362  -9  1.57387
O -1.0638  9  -1.57387
C 16.9308  -9  1.67215
O -1.06919  9  -1.67215
C 16.925  -9  1.7704
O -1.07495  9  -1.7704
C 16.9189  -9  1.86864
O -1.0811  9  -1.86864
C 16.9124  -9  1.96685
O -1.08764  9  -1.96685
C 16.9054  -9  2.06504
O -1.09459  9  -2.06504
C 16.898  -9  2.16321
O -1.10196  9  -2.16321
C 16.8902  -9  2.26136
O -1.10976  9  -2.26136
C 16.882  -9  2.35947
O -1.118  9  -2.35947
C 16.8733  -9  2.45756
O -1.1267  9  -2.45756
C 16.8641  -9  2.55562
O -1.13588  9  -2.55562
C 16.8545  -9  2.65364
O -1.14554  9  -2.65364
C 16.8443  -9  2.75163
O -1.15572  9  -2.75163
C 16.8336  -9  2.84959
O -1.16642  9  -2.84959
C 16.8223  -9  2.9475
O -1.17768  9  -2.9475
C 16.8105  -9  3.04538
O -1.1895  9  -3.04538
C 16.7981  -9  3.14321
O -1.20192  9  -3.14321
C 16.785  -9  3.24099
O -1.21496  9  -3.24099
C 16.7713  -9  3.33873
O -1.22865  9  -3.33873
C 16.757  -9  3.43641
O -1.24302  9  -3.43641
C 16.7419  -9  3.53404
O -1.2581  9  -3.53404
C 16.7261  -9  3.6316
O -1.27393  9  -3.6316
C 16.7095  -9  3.72911
O -1.29053  9  -3.72911
C 16.692  -9  3.82655
O -1.30796  9  -3.82655
C 16.6738  -9  3.92392
O -1.32625  9  -3.92392
C 16.6546  -9  4.02122
O -1.34545  9  -4.02122
C 16.6344  -9  4.11843
O -1.36561  9  -4.11843
C 16.6132  -9  4.21556
O -1.38678  9  -4.21556
C 16.591  -9  4.3126
O -1.40902  9  -4.3126
C 16.5676  -9  4.40954
O -1.43241  9  -4.40954
C 16.543  -9  4.50638
O -1.45699  9  -4.50638
C 16.5171  -9  4.60311
O -1.48286  9  -4.60311
C 16.4899  -9  4.69972
O -1.51008  9  -4.69972
C 16.4612  -9  4.7962
O -1.53876  9  -4.7962
C 16.431  -9  4.89254
O -1.56898  9  -4.89254
C 16.3992  -9  4.98874
O -1.60085  9  -4.98874
C 16.3655  -9  5.08478
O -1.63449  9  -5.08478
C 16.33  -9  5.18065
O -1.67002  9  -5.18065
C 16.2924  -9  5.27634
O -1.70759  9  -5.27634
C 16.2527  -9  5.37183
O -1.74734  9  -5.37183
C 16.2105  -9  5.46711
O -1.78945  9  -5.46711
C 16.1659  -9  5.56215
O -1.83411  9  -5.56215
C 16.1185  -9  5.65694
O -1.88151  9  -5.65694
C 16.0681  -9  5.75146
O -1.9319  9  -5.75146
C 16.0145  -9  5.84567
O -1.98552  9  -5.84567
C 15.9573  -9  5.93956
O -2.04266  9  -5.93956
C 15.8964  -9  6.03308
O -2.10364  9  -6.03308
C 15.8312  -9  6.12621
O -2.16881  9  -6.12621
C 15.7614  -9  6.21891
O -2.23857  9  -6.21891
C 15.6866  -9  6.31113
O -2.31337  9  -6.31113
C 15.6063  -9  6.40281
O -2.3937  9  -6.40281
C 15.5199  -9  6.4939
O -2.48015  9  -6.4939
C 15.4267  -9  6.58434
O -2.57335  9  -6.58434
C 15.326  -9  6.67404
O -2.67402  9  -6.67404
C 15.217  -9  6.76292
O -2.783  9  -6.76292
C 15.0988  -9  6.85087
O -2.90121  9  -6.85087
C 14.9703  -9  6.93778
O -3.02973  9  -6.93778
C 14.8302  -9  7.02351
O -3.16976  9  -7.02351
C 14.6773  -9  7.10789
O -3.32267  9  -7.10789
C 14.51  -9  7.19074
O -3.49001  9  -7.19074
C 14.3265  -9  7.27184
O -3.67354  9  -7.27184
C 14.1248  -9  7.35093
O -3.8752  9  -7.35093
C 13.9028  -9  7.4277
O -4.09718  9  -7.4277
C 13.6582  -9  7.50181
O -4.34185  9  -7.50181
C 13.3883  -9  7.57282
O -4.61172  9  -7.57282
C 13.0906  -9  7.64027
O -4.90941  9  -7.64027
C 12.7625  -9  7.70359
O -5.23748  9  -7.70359
C 12.4018  -9  7.76215
O -5.59819  9  -7.76215
C 12.0068  -9  7.81523
O -5.99323  9  -7.81523
C 11.5767  -9  7.86209
O -6.4233  9  -7.86209
C 11.1124  -9  7.90191
O -6.88763  9  -7.90191
C 10.6165  -9  7.93391
O -7.38352  9  -7.93391
C 10.094  -9  7.95737
O -7.90602  9  -7.95737
C 9.5521  -9  7.9717
O -8.4479  9  -7.9717
C 9  -9  7.97652
O -9  9  -7.97652
C 8.4479  -9  7.9717
O -9.5521  9  -7.9717
C 7.90602  -9  7.95737
O -10.094  9  -7.95737
C 7.38352  -9  7.93391
O -10.6165  9  -7.93391
C 6.88763  -9  7.90191
O -11.1124  9  -7.90191
C 6.4233  -9  7.86209
O -11.5767  9  -7.86209
C 5.99323  -9  7.81523
O -12.0068  9  -7.81523
C 5.59819  -9  7.76215
O -12.4018  9  -7.76215
C 5.23748  -9  7.70359
O -12.7625  9  -7.70359
C 4.90941  -9  7.64027
O -13.0906  9  -7.64027
C 4.61172  -9  7.57282
O -13.3883  9  -7.57282
C 4.34185  -9  7.50181
O -13.6582  9  -7.50181
C 4.09718  -9  7.4277
O -13.9028  9  -7.4277
C 3.8752  -9  7.35093
O -14.1248  9  -7.35093
C 3.67354  -9  7.27184
O -14.3265  9  -7.27184
C 3.49001  -9  7.19074
O -14.51  9  -7.19074
C 3.32267  -9  7.10789
O -14.6773  9  -7.10789
C 3.16976  -9  7.02351
O -14.8302  9  -7.02351
C 3.02973  -9  6.93778
O -14.9703  9  -6.93778
C 2.90121  -9  6.85087
O -15.0988  9  -6.85087
C 2.783  -9  6.76292
O -15.217  9  -6.76292
C 2.67402  -9  6.67404
O -15.326  9  -6.67404
C 2.57335  -9  6.58434
O -15.4267  9  -6.58434
C 2.48015  -9  6.4939
O -15.5199  9  -6.4939
C 2.3937  -9  6.40281
O -15.6063  9  -6.40281
C 2.31337  -9  6.31113
O -15.6866  9  -6.31113
C 2.23857  -9  6.21891
O -15.7614  9  -6.21891
C 2.16881  -9  6.12621
O -15.8312  9  -6.12621
C 2.10364  -9  6.03308
O -15.8964  9  -6.03308
C 2.04266  -9  5.93956
O -15.9573  9  -5.93956
C 1.98552  -9  5.84567
O -16.0145  9  -5.84567
C 1.9319  -9  5.75146
O -16.0681  9  -5.75146
C 1.88151  -9  5.65694
O -16.1185  9  -5.65694
C 1.83411  -9  5.56215
O -16.1659  9  -5.56215
C 1.78945  -9  5.46711
O -16.2105  9  -5.46711
C 1.74734  -9  5.37183
O -16.2527  9  -5.37183
C 1.70759  -9  5.27634
O -16.2924  9  -5.27634
C 1.67002  -9  5.18065
O -16.33  9  -5.18065
C 1.63449  -9  5.08478
O -16.3655  9  -5.08478
C 1.60085  -9  4.98874
O -16.3992  9  -4.98874
C 1.56898  -9  4.89254
O -16.431  9  -4.89254
C 1.53876  -9  4.7962
O -16.4612  9  -4.7962
C 1.51008  -9  4.69972
O -16.4899  9  -4.69972
C 1.48286  -9  4.60311
O -16.5171  9  -4.60311
C 1.45699  -9  4.50638
O -16.543  9  -4.50638
C 1.43241  -9  4.40954
O -16.5676  9  -4.40954
C 1.40902  -9  4.3126
O -16.591  9  -4.3126
C 1.38678  -9  4.21556
O -16.6132  9  -4.21556
C 1.36561  -9  4.11843
O -16.6344  9  -4.11843
C 1.34545  -9  4.02122
O -16.6546  9  -4.02122
C 1.32625  -9  3.92392
O -16.6738  9  -3.92392
C 1.30796  -9  3.82655
O -16.692  9  -3.82655
C 1.29053  -9  3.72911
O -16.7095  9  -3.72911
C 1.27393  -9  3.6316
O -16.7261  9  -3.6316
C 1.2581  -9  3.53404
O -16.7419  9  -3.53404
C 1.24302  -9  3.43641
O -16.757  9  -3.43641
C 1.22865  -9  3.33873
O -16.7713  9  -3.33873
C 1.21496  -9  3.24099
O -16.785  9  -3.24099
C 1.20192  -9  3.14321
O -16.7981  9  -3.14321
C 1.1895  -9  3.04538
O -16.8105  9  -3.04538
C 1.17768  -9  2.9475
O -16.8223  9  -2.9475
C 1.16642  -9  2.84959
O -16.8336  9  -2.84959
C 1.15572  -9  2.75163
O -16.8443  9  -2.75163
C 1.14554  -9  2.65364
O -16.8545  9  -2.65364
C 1.13588  -9  2.55562
O -16.8641  9  -2.55562
C 1.1267  -9  2.45756
O -16.8733  9  -2.45756
C 1.118  -9  2.35947
O -16.882  9  -2.35947
C 1.10976  -9  2.26136
O -16.8902  9  -2.26136
C 1.10196  -9  2.16321
O -16.898  9  -2.16321
C 1.09459  -9  2.06504
O -16.9054  9  -2.06504
C 1.08764  -9  1.96685
O -16.9124  9  -1.96685
C 1.0811  -9  1.86864
O -16.9189  9  -1.86864
C 1.07495  -9  1.7704
O -16.925  9  -1.7704
C 1.06919  -9  1.67215
O -16.9308  9  -1.67215
C 1.0638  -9  1.57387
O -16.9362  9  -1.57387
C 1.05878  -9  1.47558
O -16.9412  9  -1.47558
C 1.05412  -9  1.37728
O -16.9459  9  -1.37728
C 1.04981  -9  1.27896
O -16.9502  9  -1.27896
C 1.04585  -9  1.18063
O -16.9542  9  -1.18063
C 1.04222  -9  1.08228
O -16.9578  9  -1.08228
C 1.03893  -9  0.983928
O -16.9611  9  -0.983928
C 1.03596  -9  0.885563
O -16.964  9  -0.885563
C 1.03332  -9  0.787189
O -16.9667  9  -0.787189
C 1.031  -9  0.688807
O -16.969  9  -0.688807
C 1.029  -9  0.590419
O -16.971  9  -0.590419
C 1.02731  -9  0.492024
O -16.9727  9  -0.492024
C 1.02593  -9  0.393625
O -16.9741  9  -0.393625
C 1.02486  -9  0.295222
O -16.9751  9  -0.295222
C 1.02409  -9  0.196816
O -16.9759  9  -0.196816
C 1.02363  -9  0.0984086
O -16.9764  9  -0.0984086
C 10.0235  0  0
O 10.0235  0  -0
