44
psi trajectory with 20 deg step !! manualy cropped, in 10th degrees !!
U -18 -18 -10
W 18 -18 -10
F -18 18 -10
H -18 -18 10
B -18 18 10
B 18 -18 10
B 18 18 -10
B 18 18 10
C 10.0235  0  0
O 10.0235  0  -0
C 10.0235  0  2
O -7.97652  -18  -2
C 10.0235  0  4
O -7.97652  -18  -4
C 10.0235  0  6
O -7.97652  -18  -6
C 10.0235  0  8
O -7.97652  -18  -8
C 10.0235  0  10
O -7.97652  -18  -10
C 10.0235  0  12
O -7.97652  -18  -12
C 10.0235  0  14
O -7.97652  -18  -14
C 10.0235  0  16
O -7.97652  -18  -16
C -nan(ind)  0  18
O -nan(ind)  0  -18
C -7.97652  18  16
O 10.0235  -0  -16
C -7.97652  18  14
O 10.0235  -0  -14
C -7.97652  18  12
O 10.0235  -0  -12
C -7.97652  18  10
O 10.0235  -0  -10
C -7.97652  18  8
O 10.0235  -0  -8
C -7.97652  18  6
O 10.0235  -0  -6
C -7.97652  18  4
O 10.0235  -0  -4
C -7.97652  18  2
O 10.0235  -0  -2
C 10.0235  0  0
O 10.0235  0  -0
